/*--------------------------------*- C++ -*----------------------------------*\
  =========                 |
  \\      /  F ield         | OpenFOAM: The Open Source CFD Toolbox
   \\    /   O peration     | Website:  https://openfoam.org
    \\  /    A nd           | Version:  7
     \\/     M anipulation  |
-------------------------------------------------------------------------------
Reference:
    Bui-Pham, M. N. (1992).
    Studies in structures of lam inar hydrocarbon flames.
    PhD Thesis, University of California, San Diego

Notes:
    This mechanism was developed for simulating this exact counter-flow flame
    configuration. It should not be considered general-purpose.

\*---------------------------------------------------------------------------*/
FoamFile
{
    version     2.0;
    format      ascii;
    class       dictionary;
    location    "constant";
    object      reactions;
}
// * * * * * * * * * * * * * * * * * * * * * * * * * * * * * * * * * * * * * //

species
(
    CO
    CO(vib)
);

reactions
{
    methaneReaction
    {
        type     irreversibleSHReaction;
        reaction "CO = CO(vib)";
        A        5.2e16;
        beta     0;

        Ename    E;
        //Evalue   0.1;
        TEname   TE;
        //TEvalue  10000.0;
    }
}


// ************************************************************************* //
